<?xml version="1.0" encoding="UTF-8"?>

<!-- generated on 2022-09-12 21:01:22 by Eclipse SUMO netedit Version 1.10.0
<configuration xmlns:xsi="http://www.w3.org/2001/XMLSchema-instance" xsi:noNamespaceSchemaLocation="http://sumo.dlr.de/xsd/netconvertConfiguration.xsd">

    <input>
        <sumo-net-file value="/Users/linlyu/Desktop/code/nets/single-intersection/two_way/single-intersection.net.xml"/>
    </input>

    <output>
        <output-file value="/Users/linlyu/Desktop/code/nets/single-intersection/two_way/single-intersection.net.xml"/>
    </output>

    <processing>
        <geometry.min-radius.fix.railways value="false"/>
        <geometry.max-grade.fix value="false"/>
        <offset.disable-normalization value="true"/>
        <lefthand value="false"/>
    </processing>

    <junctions>
        <no-turnarounds value="true"/>
        <junctions.corner-detail value="5"/>
        <junctions.limit-turn-speed value="5.5"/>
        <rectangular-lane-cut value="false"/>
    </junctions>

    <pedestrian>
        <walkingareas value="false"/>
    </pedestrian>

    <report>
        <aggregate-warnings value="5"/>
    </report>

</configuration>
-->

<net version="1.9" junctionCornerDetail="5" limitTurnSpeed="5.50" xmlns:xsi="http://www.w3.org/2001/XMLSchema-instance" xsi:noNamespaceSchemaLocation="http://sumo.dlr.de/xsd/net_file.xsd">

    <location netOffset="0.00,0.00" convBoundary="-500.00,-500.00,500.00,500.00" origBoundary="-10000000000.00,-10000000000.00,10000000000.00,10000000000.00" projParameter="!"/>

    <edge id=":0_0" function="internal">
        <lane id=":0_0_0" index="0" speed="6.51" length="9.03" shape="-4.80,10.40 -5.15,7.95 -6.20,6.20 -7.95,5.15 -10.40,4.80"/>
    </edge>
    <edge id=":0_1" function="internal">
        <lane id=":0_1_0" index="0" speed="15.65" length="20.80" shape="-4.80,10.40 -4.80,-10.40"/>
    </edge>
    <edge id=":0_2" function="internal">
        <lane id=":0_2_0" index="0" speed="9.26" length="19.35" shape="-1.60,10.40 -0.85,5.15 1.40,1.40 5.15,-0.85 10.40,-1.60"/>
    </edge>
    <edge id=":0_3" function="internal">
        <lane id=":0_3_0" index="0" speed="6.51" length="9.03" shape="10.40,4.80 7.95,5.15 6.20,6.20 5.15,7.95 4.80,10.40"/>
    </edge>
    <edge id=":0_4" function="internal">
        <lane id=":0_4_0" index="0" speed="15.65" length="20.80" shape="10.40,4.80 -10.40,4.80"/>
    </edge>
    <edge id=":0_5" function="internal">
        <lane id=":0_5_0" index="0" speed="9.26" length="19.35" shape="10.40,1.60 5.15,0.85 1.40,-1.40 -0.85,-5.15 -1.60,-10.40"/>
    </edge>
    <edge id=":0_6" function="internal">
        <lane id=":0_6_0" index="0" speed="6.51" length="9.03" shape="4.80,-10.40 5.15,-7.95 6.20,-6.20 7.95,-5.15 10.40,-4.80"/>
    </edge>
    <edge id=":0_7" function="internal">
        <lane id=":0_7_0" index="0" speed="15.65" length="20.80" shape="4.80,-10.40 4.80,10.40"/>
    </edge>
    <edge id=":0_8" function="internal">
        <lane id=":0_8_0" index="0" speed="9.26" length="19.35" shape="1.60,-10.40 0.85,-5.15 -1.40,-1.40 -5.15,0.85 -10.40,1.60"/>
    </edge>
    <edge id=":0_9" function="internal">
        <lane id=":0_9_0" index="0" speed="6.51" length="9.03" shape="-10.40,-4.80 -7.95,-5.15 -6.20,-6.20 -5.15,-7.95 -4.80,-10.40"/>
    </edge>
    <edge id=":0_10" function="internal">
        <lane id=":0_10_0" index="0" speed="15.65" length="20.80" shape="-10.40,-4.80 10.40,-4.80"/>
    </edge>
    <edge id=":0_11" function="internal">
        <lane id=":0_11_0" index="0" speed="9.26" length="19.35" shape="-10.40,-1.60 -5.15,-0.85 -1.40,1.40 0.85,5.15 1.60,10.40"/>
    </edge>

    <edge id="-1i" from="0" to="gneJ0" priority="-1" length="500.00">
        <lane id="-1i_0" index="0" speed="15.65" length="500.00" shape="-10.40,4.80 -500.00,4.80"/>
        <lane id="-1i_1" index="1" speed="15.65" length="500.00" shape="-10.40,1.60 -500.00,1.60"/>
    </edge>
    <edge id="-2i" from="gneJ2" to="0" priority="-1" length="500.00">
        <lane id="-2i_0" index="0" speed="15.65" length="500.00" shape="500.00,4.80 10.40,4.80"/>
        <lane id="-2i_1" index="1" speed="15.65" length="500.00" shape="500.00,1.60 10.40,1.60"/>
    </edge>
    <edge id="-3i" from="gneJ4" to="0" priority="-1" length="500.00">
        <lane id="-3i_0" index="0" speed="15.65" length="500.00" shape="4.80,-500.00 4.80,-10.40"/>
        <lane id="-3i_1" index="1" speed="15.65" length="500.00" shape="1.60,-500.00 1.60,-10.40"/>
    </edge>
    <edge id="-4i" from="gneJ3" to="0" priority="-1" length="500.00">
        <lane id="-4i_0" index="0" speed="15.65" length="500.00" shape="-4.80,500.00 -4.80,10.40"/>
        <lane id="-4i_1" index="1" speed="15.65" length="500.00" shape="-1.60,500.00 -1.60,10.40"/>
    </edge>
    <edge id="1i" from="gneJ0" to="0" priority="-1" length="500.00">
        <lane id="1i_0" index="0" speed="15.65" length="500.00" shape="-500.00,-4.80 -10.40,-4.80"/>
        <lane id="1i_1" index="1" speed="15.65" length="500.00" shape="-500.00,-1.60 -10.40,-1.60"/>
    </edge>
    <edge id="2i" from="0" to="gneJ2" priority="-1" length="500.00">
        <lane id="2i_0" index="0" speed="15.65" length="500.00" shape="10.40,-4.80 500.00,-4.80"/>
        <lane id="2i_1" index="1" speed="15.65" length="500.00" shape="10.40,-1.60 500.00,-1.60"/>
    </edge>
    <edge id="3i" from="0" to="gneJ4" priority="-1" length="500.00">
        <lane id="3i_0" index="0" speed="15.65" length="500.00" shape="-4.80,-10.40 -4.80,-500.00"/>
        <lane id="3i_1" index="1" speed="15.65" length="500.00" shape="-1.60,-10.40 -1.60,-500.00"/>
    </edge>
    <edge id="4i" from="0" to="gneJ3" priority="-1" length="500.00">
        <lane id="4i_0" index="0" speed="15.65" length="500.00" shape="4.80,10.40 4.80,500.00"/>
        <lane id="4i_1" index="1" speed="15.65" length="500.00" shape="1.60,10.40 1.60,500.00"/>
    </edge>

    <tlLogic id="0" type="static" programID="1" offset="0">
        <phase duration="1000" state="GGrrrrGGrrrr"/>
        <phase duration="3"  state="yyrrrryyrrrr"/>
        <phase duration="1000"  state="rrGrrrrrGrrr"/>
        <phase duration="3"  state="rryrrrrryrrr"/>
        <phase duration="1000" state="rrrrrGrrrrrG"/>
        <phase duration="3"  state="rrrrryrrrrry"/>
        <phase duration="1000"  state="rrrGGrrrrGGr"/>
        <phase duration="3"  state="rrryyrrrryyr"/>
        <phase duration="2"  state="rrrrrrrrrrrr"/>
    </tlLogic>

    <junction id="0" type="traffic_light" x="0.00" y="0.00" incLanes="-4i_0 -4i_1 -2i_0 -2i_1 -3i_0 -3i_1 1i_0 1i_1" intLanes=":0_0_0 :0_1_0 :0_2_0 :0_3_0 :0_4_0 :0_5_0 :0_6_0 :0_7_0 :0_8_0 :0_9_0 :0_10_0 :0_11_0" shape="-6.40,10.40 6.40,10.40 6.84,8.18 7.40,7.40 8.18,6.84 9.18,6.51 10.40,6.40 10.40,-6.40 8.18,-6.84 7.40,-7.40 6.84,-8.18 6.51,-9.18 6.40,-10.40 -6.40,-10.40 -6.84,-8.18 -7.40,-7.40 -8.18,-6.84 -9.18,-6.51 -10.40,-6.40 -10.40,6.40 -8.18,6.84 -7.40,7.40 -6.84,8.18 -6.51,9.18">
        <request index="0"  response="000000000000" foes="000000010000" cont="0"/>
        <request index="1"  response="000000000000" foes="111100010000" cont="0"/>
        <request index="2"  response="000010000000" foes="100010110000" cont="0"/>
        <request index="3"  response="000010000000" foes="000010000000" cont="0"/>
        <request index="4"  response="000010000111" foes="100010000111" cont="0"/>
        <request index="5"  response="010110000100" foes="010110000100" cont="0"/>
        <request index="6"  response="000000000000" foes="010000000000" cont="0"/>
        <request index="7"  response="000000000000" foes="010000111100" cont="0"/>
        <request index="8"  response="000000000010" foes="110000100010" cont="0"/>
        <request index="9"  response="000000000010" foes="000000000010" cont="0"/>
        <request index="10" response="000111000010" foes="000111100010" cont="0"/>
        <request index="11" response="000100010110" foes="000100010110" cont="0"/>
    </junction>
    <junction id="gneJ0" type="dead_end" x="-500.00" y="0.00" incLanes="-1i_0 -1i_1" intLanes="" shape="-500.00,0.00 -500.00,6.40 -500.00,0.00"/>
    <junction id="gneJ2" type="dead_end" x="500.00" y="0.00" incLanes="2i_0 2i_1" intLanes="" shape="500.00,0.00 500.00,-6.40 500.00,0.00"/>
    <junction id="gneJ3" type="dead_end" x="0.00" y="500.00" incLanes="4i_0 4i_1" intLanes="" shape="0.00,500.00 6.40,500.00 0.00,500.00"/>
    <junction id="gneJ4" type="dead_end" x="0.00" y="-500.00" incLanes="3i_0 3i_1" intLanes="" shape="0.00,-500.00 -6.40,-500.00 0.00,-500.00"/>

    <connection from="-2i" to="4i" fromLane="0" toLane="0" via=":0_3_0" tl="0" linkIndex="4" dir="r" state="o"/>
    <connection from="-2i" to="-1i" fromLane="0" toLane="0" via=":0_4_0" tl="0" linkIndex="3" dir="s" state="o"/>
    <connection from="-2i" to="3i" fromLane="1" toLane="1" via=":0_5_0" tl="0" linkIndex="5" dir="l" state="o"/>
    <connection from="-3i" to="2i" fromLane="0" toLane="0" via=":0_6_0" tl="0" linkIndex="7" dir="r" state="O"/>
    <connection from="-3i" to="4i" fromLane="0" toLane="0" via=":0_7_0" tl="0" linkIndex="6" dir="s" state="O"/>
    <connection from="-3i" to="-1i" fromLane="1" toLane="1" via=":0_8_0" tl="0" linkIndex="8" dir="l" state="o"/>
    <connection from="-4i" to="-1i" fromLane="0" toLane="0" via=":0_0_0" tl="0" linkIndex="1" dir="r" state="O"/>
    <connection from="-4i" to="3i" fromLane="0" toLane="0" via=":0_1_0" tl="0" linkIndex="0" dir="s" state="O"/>
    <connection from="-4i" to="2i" fromLane="1" toLane="1" via=":0_2_0" tl="0" linkIndex="2" dir="l" state="o"/>
    <connection from="1i" to="3i" fromLane="0" toLane="0" via=":0_9_0" tl="0" linkIndex="10" dir="r" state="o"/>
    <connection from="1i" to="2i" fromLane="0" toLane="0" via=":0_10_0" tl="0" linkIndex="9" dir="s" state="o"/>
    <connection from="1i" to="4i" fromLane="1" toLane="1" via=":0_11_0" tl="0" linkIndex="11" dir="l" state="o"/>

    <connection from=":0_0" to="-1i" fromLane="0" toLane="0" dir="r" state="M"/>
    <connection from=":0_1" to="3i" fromLane="0" toLane="0" dir="s" state="M"/>
    <connection from=":0_2" to="2i" fromLane="0" toLane="1" dir="l" state="M"/>
    <connection from=":0_3" to="4i" fromLane="0" toLane="0" dir="r" state="M"/>
    <connection from=":0_4" to="-1i" fromLane="0" toLane="0" dir="s" state="M"/>
    <connection from=":0_5" to="3i" fromLane="0" toLane="1" dir="l" state="M"/>
    <connection from=":0_6" to="2i" fromLane="0" toLane="0" dir="r" state="M"/>
    <connection from=":0_7" to="4i" fromLane="0" toLane="0" dir="s" state="M"/>
    <connection from=":0_8" to="-1i" fromLane="0" toLane="1" dir="l" state="M"/>
    <connection from=":0_9" to="3i" fromLane="0" toLane="0" dir="r" state="M"/>
    <connection from=":0_10" to="2i" fromLane="0" toLane="0" dir="s" state="M"/>
    <connection from=":0_11" to="4i" fromLane="0" toLane="1" dir="l" state="M"/>

</net>
