<?xml version="1.0" encoding="UTF-8"?>

<!-- generated on 2022-03-28 21:17:23 by Eclipse SUMO netedit Version 1.12.0
<configuration xmlns:xsi="http://www.w3.org/2001/XMLSchema-instance" xsi:noNamespaceSchemaLocation="http://sumo.dlr.de/xsd/netconvertConfiguration.xsd">

    <input>
        <sumo-net-file value="C:\Users\lvl5569\Desktop\New%20folder\sumo-rl-master_episodes\nets\single-intersection\two_way\single-intersection.net.xml"/>
    </input>

    <output>
        <output-file value="C:\Users\lvl5569\Desktop\New%20folder\sumo-rl-master_episodes\nets\single-intersection\two_way\single-intersection.net.xml"/>
    </output>

    <processing>
        <geometry.min-radius.fix.railways value="false"/>
        <geometry.max-grade.fix value="false"/>
        <offset.disable-normalization value="true"/>
        <lefthand value="false"/>
    </processing>

    <junctions>
        <no-turnarounds value="true"/>
        <junctions.corner-detail value="5"/>
        <junctions.limit-turn-speed value="5.5"/>
        <rectangular-lane-cut value="false"/>
    </junctions>

    <pedestrian>
        <walkingareas value="false"/>
    </pedestrian>

    <report>
        <aggregate-warnings value="5"/>
    </report>

</configuration>
-->

<net version="1.9" junctionCornerDetail="5" limitTurnSpeed="5.50" xmlns:xsi="http://www.w3.org/2001/XMLSchema-instance" xsi:noNamespaceSchemaLocation="http://sumo.dlr.de/xsd/net_file.xsd">

    <location netOffset="0.00,0.00" convBoundary="-500.00,-500.00,500.00,500.00" origBoundary="-10000000000.00,-10000000000.00,10000000000.00,10000000000.00" projParameter="!"/>

    <edge id=":0_0" function="internal">
        <lane id=":0_0_0" index="0" speed="15.65" length="14.40" shape="-1.60,7.20 -1.60,-7.20"/>
    </edge>
    <edge id=":0_1" function="internal">
        <lane id=":0_1_0" index="0" speed="15.65" length="14.40" shape="7.20,1.60 -7.20,1.60"/>
    </edge>
    <edge id=":0_2" function="internal">
        <lane id=":0_2_0" index="0" speed="15.65" length="14.40" shape="1.60,-7.20 1.60,7.20"/>
    </edge>
    <edge id=":0_3" function="internal">
        <lane id=":0_3_0" index="0" speed="15.65" length="14.40" shape="-7.20,-1.60 7.20,-1.60"/>
    </edge>

    <edge id="-1i" from="0" to="gneJ0" priority="-1" length="500.00">
        <lane id="-1i_0" index="0" speed="15.65" length="500.00" shape="-7.20,1.60 -500.00,1.60"/>
    </edge>
    <edge id="-2i" from="gneJ2" to="0" priority="-1" length="500.00">
        <lane id="-2i_0" index="0" speed="15.65" length="500.00" shape="500.00,1.60 7.20,1.60"/>
    </edge>
    <edge id="-3i" from="gneJ4" to="0" priority="-1" length="500.00">
        <lane id="-3i_0" index="0" speed="15.65" length="500.00" shape="1.60,-500.00 1.60,-7.20"/>
    </edge>
    <edge id="-4i" from="gneJ3" to="0" priority="-1" length="500.00">
        <lane id="-4i_0" index="0" speed="15.65" length="500.00" shape="-1.60,500.00 -1.60,7.20"/>
    </edge>
    <edge id="1i" from="gneJ0" to="0" priority="-1" length="500.00">
        <lane id="1i_0" index="0" speed="15.65" length="500.00" shape="-500.00,-1.60 -7.20,-1.60"/>
    </edge>
    <edge id="2i" from="0" to="gneJ2" priority="-1" length="500.00">
        <lane id="2i_0" index="0" speed="15.65" length="500.00" shape="7.20,-1.60 500.00,-1.60"/>
    </edge>
    <edge id="3i" from="0" to="gneJ4" priority="-1" length="500.00">
        <lane id="3i_0" index="0" speed="15.65" length="500.00" shape="-1.60,-7.20 -1.60,-500.00"/>
    </edge>
    <edge id="4i" from="0" to="gneJ3" priority="-1" length="500.00">
        <lane id="4i_0" index="0" speed="15.65" length="500.00" shape="1.60,7.20 1.60,500.00"/>
    </edge>

    <tlLogic id="0" type="static" programID="1" offset="0">
        <phase duration="15" state="GrGr"/>
        <phase duration="3"  state="yryr"/>
        <phase duration="2"  state="rrrr"/>
        <phase duration="35" state="rGrG"/>
        <phase duration="3"  state="ryry"/>
        <phase duration="2"  state="rrrr"/>
    </tlLogic>

    <junction id="0" type="traffic_light" x="0.00" y="0.00" incLanes="-4i_0 -2i_0 -3i_0 1i_0" intLanes=":0_0_0 :0_1_0 :0_2_0 :0_3_0" shape="-3.20,7.20 3.20,7.20 3.64,4.98 4.20,4.20 4.98,3.64 5.98,3.31 7.20,3.20 7.20,-3.20 4.98,-3.64 4.20,-4.20 3.64,-4.98 3.31,-5.98 3.20,-7.20 -3.20,-7.20 -3.64,-4.98 -4.20,-4.20 -4.98,-3.64 -5.98,-3.31 -7.20,-3.20 -7.20,3.20 -4.98,3.64 -4.20,4.20 -3.64,4.98 -3.31,5.98">
        <request index="0" response="0000" foes="1010" cont="0"/>
        <request index="1" response="0101" foes="0101" cont="0"/>
        <request index="2" response="0000" foes="1010" cont="0"/>
        <request index="3" response="0101" foes="0101" cont="0"/>
    </junction>
    <junction id="gneJ0" type="dead_end" x="-500.00" y="0.00" incLanes="-1i_0" intLanes="" shape="-500.00,0.00 -500.00,3.20 -500.00,0.00"/>
    <junction id="gneJ2" type="dead_end" x="500.00" y="0.00" incLanes="2i_0" intLanes="" shape="500.00,0.00 500.00,-3.20 500.00,0.00"/>
    <junction id="gneJ3" type="dead_end" x="0.00" y="500.00" incLanes="4i_0" intLanes="" shape="0.00,500.00 3.20,500.00 0.00,500.00"/>
    <junction id="gneJ4" type="dead_end" x="0.00" y="-500.00" incLanes="3i_0" intLanes="" shape="0.00,-500.00 -3.20,-500.00 0.00,-500.00"/>

    <connection from="-2i" to="-1i" fromLane="0" toLane="0" via=":0_1_0" tl="0" linkIndex="1" dir="s" state="o"/>
    <connection from="-3i" to="4i" fromLane="0" toLane="0" via=":0_2_0" tl="0" linkIndex="2" dir="s" state="O"/>
    <connection from="-4i" to="3i" fromLane="0" toLane="0" via=":0_0_0" tl="0" linkIndex="0" dir="s" state="O"/>
    <connection from="1i" to="2i" fromLane="0" toLane="0" via=":0_3_0" tl="0" linkIndex="3" dir="s" state="o"/>

    <connection from=":0_0" to="3i" fromLane="0" toLane="0" dir="s" state="M"/>
    <connection from=":0_1" to="-1i" fromLane="0" toLane="0" dir="s" state="M"/>
    <connection from=":0_2" to="4i" fromLane="0" toLane="0" dir="s" state="M"/>
    <connection from=":0_3" to="2i" fromLane="0" toLane="0" dir="s" state="M"/>

</net>
